*Heading
** Radial Needle Microstructure for Abaqus
** Generated with enhanced export script
**
** ----------------------------------------------------------------
**                          NODES
** ----------------------------------------------------------------
*Node
1, 0.000000, 0.000000, 0.000000
2, 0.500000, 0.000000, 0.000000
3, 1.000000, 0.000000, 0.000000
4, 1.500000, 0.000000, 0.000000
5, 2.000000, 0.000000, 0.000000
6, 2.500000, 0.000000, 0.000000
7, 3.000000, 0.000000, 0.000000
8, 3.500000, 0.000000, 0.000000
9, 4.000000, 0.000000, 0.000000
10, 4.500000, 0.000000, 0.000000
11, 5.000000, 0.000000, 0.000000
12, 5.500000, 0.000000, 0.000000
13, 6.000000, 0.000000, 0.000000
14, 6.500000, 0.000000, 0.000000
15, 7.000000, 0.000000, 0.000000
16, 7.500000, 0.000000, 0.000000
17, 8.000000, 0.000000, 0.000000
18, 8.500000, 0.000000, 0.000000
19, 9.000000, 0.000000, 0.000000
20, 9.500000, 0.000000, 0.000000
** ... 9241 like lines cut
**
** ----------------------------------------------------------------
**                          ELEMENTS
** ----------------------------------------------------------------
*Element, type=C3D8
1, 1, 2, 23, 22, 442, 443, 464, 463
2, 2, 3, 24, 23, 443, 444, 465, 464
3, 3, 4, 25, 24, 444, 445, 466, 465
4, 4, 5, 26, 25, 445, 446, 467, 466
5, 5, 6, 27, 26, 446, 447, 468, 467
6, 6, 7, 28, 27, 447, 448, 469, 468
7, 7, 8, 29, 28, 448, 449, 470, 469
8, 8, 9, 30, 29, 449, 450, 471, 470
9, 9, 10, 31, 30, 450, 451, 472, 471
10, 10, 11, 32, 31, 451, 452, 473, 472
11, 11, 12, 33, 32, 452, 453, 474, 473
12, 12, 13, 34, 33, 453, 454, 475, 474
13, 13, 14, 35, 34, 454, 455, 476, 475
14, 14, 15, 36, 35, 455, 456, 477, 476
15, 15, 16, 37, 36, 456, 457, 478, 477
16, 16, 17, 38, 37, 457, 458, 479, 478
17, 17, 18, 39, 38, 458, 459, 480, 479
18, 18, 19, 40, 39, 459, 460, 481, 480
19, 19, 20, 41, 40, 460, 461, 482, 481
20, 20, 21, 42, 41, 461, 462, 483, 482
** ... 7980 like lines cut
**
** ----------------------------------------------------------------
**                     GRAIN ELEMENT SETS
** ----------------------------------------------------------------
*Elset, elset=Grain1
1, 2, 3, 4, 5, 6, 7, 8, 9, 10, 11, 12, 13, 14, 15, 16
17, 18, 19, 20, 21, 22, 23, 24, 25, 26, 27, 28, 29, 30, 31, 32
33, 34, 35, 36, 37, 38, 39, 40, 41, 42, 43, 44, 45, 46, 47, 48
49, 50, 51, 52, 53, 54, 55, 56, 57, 58, 59, 60, 61, 62, 63, 64
65, 66, 67, 68, 69, 70, 71, 72, 73, 74, 75, 76, 77, 78, 79, 80
81, 82, 83, 84, 85, 86, 87, 88, 89, 90, 91, 92, 93, 94, 95, 96
97, 98, 99, 100, 101, 102, 103, 104, 105, 106, 107, 108, 109, 110, 111, 112
113, 114, 115, 116, 117, 118, 119, 120, 121, 122, 123, 124, 125, 126, 127, 128
129, 130, 131, 132, 133, 134, 135, 136, 137, 138, 139, 140, 141, 142, 143, 144
145, 146, 147, 148, 149, 150, 151, 152, 153, 154, 155, 156, 157, 158, 159, 160
161, 162, 163, 164, 165, 166, 167, 168, 169, 170, 171, 172, 173, 174, 175, 176
177, 178, 179, 180, 181, 182, 183, 184, 185, 186, 187, 188, 189, 190, 191, 192
193, 194, 195, 196, 197, 198, 199, 200, 201, 202, 203, 204, 205, 206, 207, 208
209, 210, 211, 212, 213, 214, 215, 216, 217, 218, 219, 220, 221, 222, 223, 224
225, 226, 227, 228, 229, 230, 231, 232, 233, 234, 235, 236, 237, 238, 239, 240
241, 242, 243, 244, 245, 246, 247, 248, 249, 250, 251, 252, 253, 254, 255, 256
257, 258, 259, 260, 261, 262, 263, 264, 265, 266, 267, 268, 269, 270, 271, 272
273, 274, 275, 276, 277, 278, 279, 280, 281, 282, 283, 284, 285, 286, 287, 288
289, 290, 291, 292, 293, 294, 295, 296, 297, 298, 299, 300, 301, 302, 303, 304
305, 306, 307, 308, 309, 310, 311, 312, 313, 314, 315, 316, 317, 318, 319, 320
** ... 145 like lines cut
*Elset, elset=Grain2
1602, 1632, 1651, 1670, 1834, 1837, 1859, 2001, 2002, 2003, 2004, 2007, 2010, 2011, 2012, 2013
2014, 2021, 2022, 2023, 2024, 2029, 2030, 2031, 2032, 2033, 2034, 2041, 2042, 2043, 2047, 2048
2049, 2050, 2051, 2052, 2053, 2054, 2062, 2066, 2068, 2069, 2070, 2071, 2072, 2073, 2088, 2089
2090, 2091, 2092, 2102, 2109, 2110, 2111, 2127, 2139, 2140, 2174, 2177, 2192, 2193, 2194, 2195
2196, 2197, 2198, 2199, 2211, 2212, 2213, 2214, 2215, 2216, 2217, 2218, 2219, 2220, 2230, 2231
2232, 2233, 2234, 2235, 2236, 2237, 2238, 2239, 2240, 2252, 2253, 2254, 2255, 2256, 2257, 2258
2259, 2260, 2272, 2273, 2274, 2275, 2276, 2277, 2278, 2279, 2280, 2294, 2297, 2298, 2299, 2300
2319, 2349, 2361, 2390, 2401, 2402, 2403, 2404, 2405, 2406, 2407, 2408, 2409, 2410, 2411, 2412
2413, 2414, 2415, 2418, 2419, 2421, 2422, 2423, 2424, 2425, 2426, 2427, 2428, 2429, 2430, 2431
2432, 2433, 2434, 2435, 2436, 2437, 2441, 2442, 2443, 2444, 2445, 2446, 2447, 2448, 2449, 2450
2451, 2452, 2453, 2454, 2455, 2456, 2461, 2462, 2463, 2464, 2465, 2466, 2467, 2468, 2469, 2470
2471, 2472, 2473, 2474, 2481, 2482, 2483, 2484, 2485, 2486, 2487, 2488, 2489, 2490, 2491, 2492
2493, 2498, 2499, 2500, 2501, 2502, 2503, 2504, 2505, 2506, 2507, 2508, 2509, 2510, 2511, 2512
2517, 2518, 2519, 2520, 2521, 2522, 2523, 2524, 2525, 2526, 2527, 2528, 2529, 2530, 2531, 2537
2538, 2539, 2540, 2541, 2542, 2543, 2544, 2545, 2546, 2547, 2548, 2549, 2554, 2556, 2557, 2558
2559, 2560, 2564, 2566, 2567, 2568, 2570, 2571, 2572, 2573, 2574, 2575, 2576, 2577, 2578, 2579
2580, 2589, 2590, 2591, 2592, 2593, 2594, 2595, 2596, 2597, 2598, 2599, 2600, 2608, 2609, 2610
2611, 2612, 2613, 2614, 2615, 2616, 2617, 2618, 2619, 2620, 2621, 2628, 2629, 2630, 2631, 2632
2633, 2634, 2635, 2636, 2637, 2638, 2639, 2640, 2648, 2649, 2650, 2651, 2652, 2653, 2654, 2655
2656, 2657, 2658, 2659, 2660, 2669, 2670, 2671, 2672, 2673, 2674, 2675, 2676, 2677, 2678, 2679
** ... 172 like lines cut
*Elset, elset=Grain3
4601, 4622, 4641, 4643, 4680, 4964, 4981, 4982, 4983, 4984, 5001, 5002, 5003, 5004, 5021, 5022
5023, 5024, 5025, 5039, 5040, 5041, 5042, 5043, 5044, 5045, 5046, 5058, 5059, 5060, 5061, 5062
5063, 5064, 5065, 5076, 5078, 5079, 5080, 5081, 5082, 5083, 5084, 5098, 5099, 5100, 5119, 5120
5165, 5174, 5185, 5209, 5210, 5211, 5212, 5213, 5229, 5230, 5231, 5249, 5250, 5251, 5252, 5253
5271, 5272, 5273, 5289, 5290, 5291, 5292, 5293, 5309, 5310, 5311, 5312, 5313, 5329, 5330, 5331
5332, 5333, 5341, 5342, 5344, 5349, 5350, 5351, 5352, 5361, 5362, 5363, 5364, 5365, 5366, 5370
5371, 5381, 5382, 5383, 5384, 5385, 5386, 5387, 5401, 5402, 5403, 5404, 5405, 5406, 5407, 5421
5422, 5423, 5424, 5425, 5426, 5427, 5428, 5435, 5436, 5437, 5438, 5439, 5440, 5441, 5442, 5443
5444, 5445, 5446, 5447, 5448, 5454, 5455, 5456, 5457, 5458, 5459, 5460, 5461, 5462, 5463, 5464
5465, 5466, 5467, 5468, 5473, 5474, 5475, 5476, 5477, 5478, 5479, 5480, 5481, 5482, 5483, 5484
5485, 5486, 5487, 5488, 5489, 5494, 5495, 5496, 5497, 5498, 5499, 5500, 5501, 5502, 5503, 5504
5505, 5506, 5508, 5511, 5515, 5516, 5517, 5518, 5519, 5520, 5523, 5524, 5525, 5526, 5527, 5533
5534, 5535, 5543, 5544, 5545, 5546, 5547, 5552, 5553, 5554, 5555, 5556, 5563, 5564, 5565, 5566
5567, 5572, 5573, 5574, 5575, 5576, 5583, 5584, 5585, 5586, 5587, 5592, 5593, 5594, 5595, 5596
5608, 5609, 5610, 5611, 5612, 5613, 5614, 5615, 5616, 5617, 5628, 5629, 5630, 5631, 5632, 5633
5634, 5635, 5636, 5648, 5649, 5650, 5651, 5652, 5653, 5654, 5655, 5656, 5667, 5668, 5669, 5670
5671, 5672, 5673, 5674, 5675, 5687, 5688, 5689, 5690, 5691, 5692, 5693, 5694, 5695, 5707, 5708
5709, 5710, 5711, 5712, 5713, 5714, 5715, 5721, 5722, 5723, 5724, 5727, 5728, 5729, 5730, 5731
5732, 5733, 5734, 5735, 5741, 5742, 5743, 5744, 5745, 5746, 5747, 5748, 5749, 5750, 5751, 5752
5753, 5761, 5762, 5763, 5764, 5765, 5766, 5767, 5768, 5769, 5770, 5771, 5772, 5773, 5781, 5782
** ... 124 like lines cut
**
** ----------------------------------------------------------------
**                     NEEDLE ELEMENT SETS
** ----------------------------------------------------------------
*Elset, elset=Needle1
106, 119, 120, 125, 126, 127, 129, 130, 131, 132, 133, 134, 135, 136, 137, 138
139, 140, 146, 147, 148, 149, 150, 151, 152, 153, 154, 155, 156, 157, 158, 159
160, 170, 174, 175, 176, 177, 178, 179, 180, 195, 196, 197, 198, 199, 200, 217
506, 525, 526, 527, 529, 539, 540, 546, 548, 549, 550, 551, 552, 554, 555, 556
557, 558, 559, 560, 570, 576, 577, 578, 579, 580, 940, 956, 957, 958, 959, 960
1358, 1359, 1360, 1740, 1758, 1759, 1760, 2159, 2513, 2536, 2895, 2896, 3295, 3695
*Elset, elset=Needle3
2061
*Elset, elset=Needle4
685, 705, 1085, 1105, 1106, 1126
*Elset, elset=Needle6
1611, 1612
*Elset, elset=Needle7
581, 601, 981, 1001, 1381, 1401, 2181, 2201, 2561, 2581, 2601, 2622, 2641, 2981
*Elset, elset=Needle8
1281, 1301, 2081
*Elset, elset=Needle9
169, 171, 172, 173, 193, 194, 213, 214, 215, 216, 218, 219, 220, 235, 236, 237
238, 239, 240, 257, 258, 259, 260, 278, 279, 280, 300, 553, 569, 571, 572, 573
574, 575, 594, 595, 596, 597, 598, 599, 600, 615, 616, 617, 618, 619, 620, 637
638, 639, 640, 659, 660, 680, 950, 951, 952, 953, 954, 955, 973, 974, 975, 976
977, 978, 979, 980, 995, 996, 997, 998, 999, 1000, 1017, 1018, 1019, 1020, 1038, 1039
1040, 1060, 1353, 1354, 1356, 1374, 1375, 1376, 1377, 1378, 1379, 1380, 1396, 1397, 1398, 1399
1400, 1418, 1419, 1420, 1439, 1440, 1751, 1752, 1753, 1754, 1755, 1756, 1757, 1775, 1776, 1777
1778, 1779, 1780, 1796, 1797, 1798, 1799, 1800, 1818, 1819, 1820, 1840, 2152, 2153, 2154, 2155
2156, 2157, 2158, 2160, 2175, 2176, 2178, 2179, 2180, 2200, 2532, 2533, 2534, 2535, 2551, 2552
2553, 2555
*Elset, elset=Needle12
222, 223, 243, 284, 304, 324, 325, 344, 345, 346, 364, 365, 366, 384, 385, 386
387, 622, 623, 643, 644, 664, 684, 704, 724, 725, 743, 744, 745, 746, 763, 764
765, 766, 784, 785, 786, 787, 1022, 1023, 1043, 1044, 1064, 1084, 1104, 1124, 1125, 1143
1144, 1145, 1146, 1163, 1164, 1165, 1166, 1183, 1184, 1185, 1186, 1187, 1484, 1504, 1505, 1524
1525, 1526, 1543, 1544, 1545, 1546, 1563, 1564, 1565, 1566, 1567, 1583, 1584, 1585, 1586, 1587
1905, 1924, 1925, 1944, 1945, 1946, 1964, 1965, 1966, 1967, 1984, 1985, 1986, 1987, 2304, 2324
2325, 2343, 2344, 2345, 2346, 2363, 2364, 2365, 2366, 2367, 2383, 2384, 2385, 2386, 2387, 2643
2663, 2683, 2684, 2703, 2704, 2705, 2723, 2724, 2725, 2744, 2745, 2746, 2764, 2765, 2766, 2784
2785, 2786, 2787, 3043, 3165, 3185
*Elset, elset=Needle14
10, 11, 12, 13, 14, 15, 16, 17, 18, 19, 20, 29, 30, 31, 32, 33
34, 35, 36, 37, 38, 39, 40, 49, 50, 51, 52, 53, 54, 55, 56, 57
58, 59, 60, 68, 69, 70, 71, 72, 73, 74, 75, 76, 77, 78, 79, 80
87, 88, 89, 90, 91, 92, 93, 94, 95, 96, 97, 98, 99, 100, 107, 108
109, 110, 111, 112, 113, 114, 115, 116, 117, 118, 128, 411, 412, 413, 414, 415
416, 417, 418, 419, 420, 430, 431, 432, 433, 434, 435, 436, 437, 438, 439, 440
449, 450, 451, 452, 453, 454, 455, 456, 457, 458, 459, 460, 468, 469, 470, 471
472, 473, 474, 475, 476, 477, 478, 479, 480, 487, 488, 489, 490, 491, 492, 493
494, 495, 496, 497, 498, 499, 500, 507, 508, 509, 510, 511, 512, 513, 514, 515
516, 517, 518, 519, 520, 528, 530, 531, 532, 533, 534, 535, 536, 537, 538, 811
812, 813, 814, 815, 816, 817, 818, 819, 820, 831, 832, 833, 834, 835, 836, 837
838, 839, 840, 850, 851, 852, 853, 854, 855, 856, 857, 858, 859, 860, 869, 870
871, 872, 873, 874, 875, 876, 877, 878, 879, 880, 887, 888, 889, 890, 891, 892
893, 894, 895, 896, 897, 898, 899, 900, 907, 908, 909, 910, 911, 912, 913, 914
915, 916, 917, 918, 919, 920, 927, 928, 929, 930, 931, 932, 933, 934, 935, 936
937, 938, 939, 949, 1212, 1213, 1214, 1215, 1216, 1217, 1218, 1219, 1220, 1231, 1232, 1233
1234, 1235, 1236, 1237, 1238, 1239, 1240, 1251, 1252, 1253, 1254, 1255, 1256, 1257, 1258, 1259
1260, 1270, 1271, 1272, 1273, 1274, 1275, 1276, 1277, 1278, 1279, 1280, 1289, 1290, 1291, 1292
1293, 1294, 1295, 1296, 1297, 1298, 1299, 1300, 1307, 1308, 1309, 1310, 1311, 1312, 1313, 1314
1315, 1316, 1317, 1318, 1319, 1320, 1328, 1329, 1330, 1331, 1332, 1333, 1334, 1335, 1336, 1337
** ... 11 like lines cut
*Elset, elset=Needle15
541, 941, 961, 1341, 1361, 2141
*Elset, elset=Needle16
1, 2, 3, 21, 22, 41, 401, 402, 403, 421, 422, 441, 801, 802, 803, 821
822, 841, 1201, 1202, 1203, 1221, 1222, 1223, 1241, 1261, 1601, 1603, 1621, 1622, 1623, 1641
1661, 1701, 2101
*Elset, elset=Needle17
141, 142, 143, 144, 145, 161, 162, 163, 164, 165, 166, 167, 168, 181, 182, 183
184, 185, 186, 187, 188, 189, 190, 191, 192, 201, 202, 203, 204, 205, 206, 207
208, 209, 210, 211, 212, 224, 225, 226, 227, 228, 229, 230, 231, 232, 233, 234
244, 245, 246, 247, 248, 249, 250, 251, 252, 253, 254, 255, 256, 264, 265, 266
267, 268, 269, 270, 271, 272, 273, 274, 275, 276, 277, 285, 286, 287, 288, 289
290, 291, 292, 293, 294, 295, 296, 297, 298, 299, 305, 306, 307, 308, 309, 310
311, 312, 313, 314, 315, 316, 317, 318, 319, 320, 326, 327, 328, 329, 330, 331
332, 333, 334, 335, 336, 337, 338, 339, 340, 347, 348, 349, 350, 351, 352, 353
354, 355, 356, 357, 358, 359, 360, 367, 368, 369, 370, 371, 372, 373, 374, 375
376, 377, 378, 379, 380, 388, 389, 390, 391, 392, 393, 394, 395, 396, 397, 398
399, 400, 542, 543, 544, 545, 547, 561, 562, 563, 564, 565, 566, 567, 568, 582
583, 584, 585, 586, 587, 588, 589, 590, 591, 592, 593, 602, 603, 604, 605, 606
607, 608, 609, 610, 611, 612, 613, 614, 624, 625, 626, 627, 628, 629, 630, 631
632, 633, 634, 635, 636, 645, 646, 647, 648, 649, 650, 651, 652, 653, 654, 655
656, 657, 658, 665, 666, 667, 668, 669, 670, 671, 672, 673, 674, 675, 676, 677
678, 679, 686, 687, 688, 689, 690, 691, 692, 693, 694, 695, 696, 697, 698, 699
700, 706, 707, 708, 709, 710, 711, 712, 713, 714, 715, 716, 717, 718, 719, 720
726, 727, 728, 729, 730, 731, 732, 733, 734, 735, 736, 737, 738, 739, 740, 747
748, 749, 750, 751, 752, 753, 754, 755, 756, 757, 758, 759, 760, 767, 768, 769
770, 771, 772, 773, 774, 775, 776, 777, 778, 779, 780, 788, 789, 790, 791, 792
** ... 60 like lines cut
*Elset, elset=Needle19
4, 5, 6, 7, 8, 9, 23, 24, 25, 26, 27, 28, 42, 43, 44, 45
46, 47, 48, 61, 62, 63, 64, 65, 66, 67, 81, 82, 83, 84, 85, 86
101, 102, 103, 104, 105, 121, 122, 123, 124, 404, 405, 406, 407, 408, 409, 410
423, 424, 425, 426, 427, 428, 429, 442, 443, 444, 445, 446, 447, 448, 461, 462
463, 464, 465, 466, 467, 481, 482, 483, 484, 485, 486, 501, 502, 503, 504, 505
521, 522, 523, 524, 804, 805, 806, 807, 808, 809, 810, 823, 824, 825, 826, 827
828, 829, 830, 842, 843, 844, 845, 846, 847, 848, 849, 861, 862, 863, 864, 865
866, 867, 868, 881, 882, 883, 884, 885, 886, 901, 902, 903, 904, 905, 906, 921
922, 923, 924, 925, 1204, 1205, 1206, 1207, 1208, 1209, 1210, 1211, 1224, 1225, 1226, 1227
1228, 1229, 1230, 1242, 1243, 1244, 1245, 1246, 1247, 1248, 1249, 1250, 1262, 1263, 1264, 1265
1266, 1267, 1268, 1269, 1282, 1283, 1284, 1285, 1286, 1287, 1288, 1302, 1303, 1304, 1305, 1306
1323, 1324, 1325, 1326, 1604, 1605, 1606, 1607, 1608, 1609, 1610, 1624, 1625, 1626, 1627, 1628
1629, 1630, 1642, 1643, 1644, 1645, 1646, 1647, 1648, 1649, 1650, 1662, 1663, 1664, 1665, 1666
1667, 1668, 1669, 1681, 1682, 1683, 1684, 1685, 1686, 1687, 1688, 1689, 1703, 1704, 1705, 1706
1724, 1725, 1726, 1744, 2005, 2006, 2008, 2009, 2025, 2026, 2027, 2028, 2044, 2045, 2046, 2063
2064, 2065, 2067, 2082, 2083, 2084, 2085, 2086, 2087, 2103, 2104, 2105, 2106, 2107, 2123, 2124
2125, 2126
*Elset, elset=Needle20
221, 241, 242, 261, 262, 263, 281, 282, 283, 301, 302, 303, 321, 322, 323, 341
342, 343, 361, 362, 363, 381, 382, 383, 621, 641, 642, 661, 662, 663, 681, 682
683, 701, 702, 703, 721, 722, 723, 741, 742, 761, 762, 781, 782, 783, 1002, 1021
1041, 1042, 1061, 1062, 1063, 1081, 1082, 1083, 1101, 1102, 1103, 1121, 1122, 1123, 1141, 1142
1161, 1162, 1181, 1182, 1321, 1322, 1342, 1362, 1382, 1402, 1421, 1422, 1423, 1441, 1442, 1443
1461, 1462, 1463, 1481, 1482, 1483, 1501, 1502, 1503, 1521, 1522, 1523, 1541, 1542, 1561, 1562
1581, 1582, 1702, 1721, 1722, 1723, 1741, 1742, 1743, 1761, 1762, 1763, 1781, 1782, 1783, 1801
1802, 1803, 1821, 1822, 1823, 1841, 1842, 1843, 1844, 1861, 1862, 1863, 1864, 1881, 1882, 1883
1884, 1901, 1902, 1903, 1904, 1921, 1922, 1923, 1941, 1942, 1943, 1961, 1962, 1963, 1981, 1982
1983, 2121, 2122, 2142, 2162, 2182, 2202, 2221, 2222, 2223, 2241, 2242, 2243, 2261, 2262, 2263
2281, 2282, 2283, 2301, 2302, 2303, 2321, 2322, 2323, 2341, 2342, 2362, 2381, 2382, 2642, 2661
2662, 2681, 2682, 2701
*Elset, elset=Needle21
2211, 2570
*Elset, elset=Needle22
4202, 4602
*Elset, elset=Needle23
4163, 4405, 4406, 4425, 4426, 4427, 4444, 4445, 4446, 4463, 4464, 4465, 4482, 4483, 4484, 4485
4486, 4503, 4504, 4505, 4506, 4523, 4524, 4525, 4543, 4563, 4583, 4803, 4804, 4805, 4806, 4822
4823, 4824, 4825, 4826, 4827, 4828, 4842, 4843, 4844, 4845, 4846, 4863, 4864, 4865, 4881, 4882
4883, 4884, 4885, 4886, 4887, 4903, 4904, 4905, 4906, 4907, 4923, 4924, 4925, 4926, 4942, 4943
4944, 4945, 4946, 4963, 5203, 5204, 5205, 5206, 5207, 5221, 5222, 5223, 5224, 5225, 5226, 5227
5228, 5241, 5242, 5243, 5244, 5245, 5246, 5247, 5261, 5262, 5263, 5264, 5265, 5266, 5267, 5281
5282, 5283, 5284, 5285, 5286, 5287, 5303, 5304, 5305, 5306, 5307, 5323, 5324, 5325, 5326, 5343
5345, 5346, 5603, 5604, 5605, 5606, 5607, 5621, 5622, 5623, 5624, 5625, 5626, 5627, 5641, 5642
5643, 5644, 5645, 5646, 5647, 5661, 5662, 5663, 5664, 5665, 5666, 5681, 5682, 5683, 5684, 5685
5686, 5703, 5704, 5705, 5706, 5725, 5726, 6003, 6004, 6005, 6006, 6021, 6022, 6023, 6024, 6025
6026, 6041, 6042, 6043, 6044, 6045, 6046, 6061, 6062, 6063, 6064, 6065, 6081, 6082, 6083, 6084
6085, 6104, 6105, 6402, 6403, 6404, 6405, 6421, 6422, 6423, 6424, 6425, 6441, 6442, 6443, 6444
6445, 6461, 6462, 6463, 6464, 6465, 6482, 6483, 6484, 6485, 6802, 6803, 6804, 6805, 6821, 6822
6823, 6824, 6825, 6841, 6842, 6843, 6844, 6845, 6861, 6862, 6863, 6864, 7201, 7202, 7203, 7204
7221, 7222, 7223, 7224, 7241, 7242, 7243, 7244, 7262, 7263, 7264, 7601, 7602, 7603, 7604, 7621
7622, 7623, 7624, 7641, 7642, 7643, 7644, 7664
*Elset, elset=Needle24
2349, 2390, 2707, 2708, 2709, 2710, 2727, 2728, 2729, 2730, 2731, 2747, 2748, 2749, 2750, 2751
2767, 2768, 2769, 2770, 2771, 2772, 2788, 2789, 2790, 2791, 2792, 3045, 3066, 3067, 3085, 3086
3087, 3106, 3107, 3108, 3111, 3126, 3127, 3128, 3129, 3132, 3146, 3147, 3148, 3149, 3150, 3167
3168, 3169, 3170, 3171, 3187, 3188, 3189, 3190, 3191, 3192, 3193, 3445, 3465, 3466, 3507, 3527
3528, 3548, 3549, 3568, 3569, 3570, 3588, 3589, 3590, 3591, 3908, 3928, 3929, 3932, 3948, 3949
3950, 3953, 3969, 3970, 3971, 3989, 3990, 3991, 3992, 3993, 4245, 4265, 4266, 4287, 4307, 4308
4309, 4310, 4311, 4327, 4328, 4329, 4330, 4331, 4332, 4348, 4349, 4350, 4351, 4352, 4353, 4368
4369, 4370, 4371, 4372, 4373, 4388, 4389, 4390, 4391, 4392, 4393, 4645, 4665, 4666, 4667, 4685
4686, 4687, 4688, 4706, 4707, 4708, 4709, 4710, 4711, 4726, 4727, 4728, 4729, 4730, 4731, 4732
4746, 4747, 4748, 4749, 4750, 4751, 4752, 4767, 4768, 4769, 4770, 4771, 4772, 4773, 4787, 4788
4789, 4790, 4791, 4792, 4793, 5066, 5067, 5085, 5086, 5087, 5088, 5106, 5107, 5108, 5109, 5110
5111, 5126, 5127, 5128, 5129, 5130, 5131, 5146, 5147, 5148, 5149, 5150, 5151, 5167, 5168, 5169
5170, 5171, 5172, 5187, 5188, 5189, 5190, 5191, 5192, 5507, 5509, 5510, 5528, 5529, 5530, 5531
5548, 5549, 5550, 5551, 5568, 5569, 5570, 5571, 5588, 5589, 5590, 5591, 5970, 5990
*Elset, elset=Needle26
2418, 2419, 2436, 2437, 2456, 2816, 2817, 2818, 2819, 2820, 2836, 2837, 2838, 2839, 2856, 2857
2876, 3216, 3217, 3218, 3219, 3220, 3237, 3238, 3239, 3240, 3256, 3257, 3276, 3617, 3618, 3619
3620, 3637, 3638, 3656, 4018, 4019, 4020, 4037, 4418
*Elset, elset=Needle27
2361, 2702, 2721, 2722, 2741, 2742, 2743, 2761, 2762, 2763, 2781, 2782, 2783, 3062, 3063, 3081
3082, 3084, 3101, 3102, 3103, 3104, 3121, 3122, 3124, 3141, 3142, 3144, 3161, 3162, 3164, 3181
3182, 3184, 3501, 3521, 3541, 3561, 3581, 3901, 4241, 4242, 4261, 4281, 4301, 4321, 4341, 4361
4381, 4642, 4661, 4662, 4663, 4681, 4682, 4684, 4701, 4702, 4703, 4704, 4721, 4722, 4724, 4741
4742, 4744, 4761, 4762, 4764, 4781, 4782, 4784, 5101, 5102, 5103, 5104, 5121, 5122, 5124, 5141
5142, 5143, 5144, 5161, 5162, 5163, 5164, 5181, 5182, 5183, 5184, 5521, 5522, 5541, 5542, 5561
5562, 5581, 5582, 5961
*Elset, elset=Needle29
3960
*Elset, elset=Needle30
2621, 3002, 3021, 3821, 4221, 4621
*Elset, elset=Needle31
2007, 2047, 2066, 2406, 2407, 2408, 2426, 2427, 2445, 2446, 2465, 2485, 2544, 2806, 2807, 2826
2865, 3207, 3226, 3606, 3607, 3626, 3665, 4006, 4007, 4008, 4026, 4027, 4045, 4046, 4065, 4085
4144, 4407, 4408, 4447, 4466, 4544, 4807, 4808, 4847, 4866, 4867, 5208
*Elset, elset=Needle32
3105, 3125, 3145, 3166, 3186, 3444, 3485, 3486, 3505, 3506, 3525, 3526, 3545, 3546, 3547, 3565
3566, 3567, 3585, 3586, 3587, 3865, 3886, 3905, 3906, 3907, 3926, 3927, 3946, 3947, 3966, 3967
3968, 3986, 3987, 3988, 4244, 4285, 4286, 4305, 4306, 4325, 4326, 4345, 4346, 4347, 4365, 4366
4367, 4385, 4386, 4387, 4644, 4705, 4725, 4745, 4765, 4766, 4785, 4786, 5105, 5125, 5145, 5166
5186
*Elset, elset=Needle34
2139, 2140, 2498, 2499, 2500, 2517, 2518, 2519, 2520, 2537, 2538, 2539, 2540, 2556, 2558, 2559
2560, 2571, 2580, 2878, 2879, 2880, 2897, 2898, 2899, 2900, 2914, 2915, 2916, 2917, 2918, 2919
2920, 2933, 2934, 2935, 2936, 2937, 2938, 2939, 2940, 2950, 2951, 2960, 3259, 3277, 3278, 3279
3280, 3296, 3297, 3298, 3299, 3300, 3314, 3315, 3316, 3317, 3318, 3319, 3320, 3333, 3334, 3335
3336, 3337, 3338, 3339, 3340, 3351, 3360, 3639, 3640, 3657, 3658, 3659, 3660, 3677, 3678, 3679
3680, 3696, 3697, 3698, 3699, 3700, 3714, 3715, 3716, 3717, 3718, 3719, 3720, 3733, 3735, 3736
3738, 3739, 3740, 4038, 4039, 4040, 4057, 4058, 4059, 4060, 4076, 4077, 4078, 4079, 4080, 4095
4096, 4097, 4098, 4099, 4100, 4113, 4114, 4115, 4116, 4117, 4118, 4119, 4120, 4132, 4133, 4134
4135, 4136, 4137, 4138, 4139, 4140, 4150, 4151, 4160, 4165, 4419, 4420, 4438, 4439, 4440, 4457
4458, 4459, 4460, 4476, 4477, 4478, 4479, 4480, 4494, 4495, 4496, 4497, 4498, 4499, 4500, 4513
4514, 4515, 4516, 4517, 4518, 4519, 4520, 4530, 4531, 4532, 4533, 4534, 4535, 4536, 4537, 4538
4539, 4540, 4549, 4550, 4551, 4560, 4565, 4818, 4819, 4820, 4837, 4838, 4839, 4840, 4857, 4858
4859, 4860, 4876, 4877, 4878, 4879, 4880, 4894, 4895, 4896, 4897, 4898, 4899, 4900, 4913, 4914
4915, 4916, 4917, 4918, 4919, 4920, 4930, 4931, 4932, 4933, 4934, 4935, 4936, 4937, 4938, 4939
4940, 4948, 4949, 4950, 4951, 4956, 4958, 4959, 4960, 4971, 4980, 5218, 5219, 5220, 5237, 5238
5239, 5240, 5257, 5258, 5259, 5260, 5276, 5277, 5278, 5279, 5280, 5294, 5295, 5296, 5297, 5298
5299, 5300, 5314, 5315, 5316, 5317, 5318, 5319, 5320, 5336, 5337, 5338, 5339, 5340, 5348, 5356
5358, 5359, 5360, 5380, 5618, 5619, 5620, 5637, 5638, 5639, 5640, 5657, 5658, 5659, 5660, 5676
5677, 5678, 5679, 5680, 5696, 5697, 5698, 5699, 5700, 5716, 5717, 5718, 5719, 5720, 5736, 5737
5738, 5739, 5740, 5758, 5759, 5760, 6018, 6019, 6020, 6038, 6039, 6040, 6057, 6058, 6059, 6060
** ... 6 like lines cut
*Elset, elset=Needle35
3003, 3022, 3041, 3042, 3061, 3422, 3441, 3442, 3461, 3481, 3841, 3861
*Elset, elset=Needle36
1602, 2001, 2002, 2003, 2004, 2021, 2022, 2023, 2024, 2041, 2042, 2043, 2062, 2102, 2401, 2402
2403, 2404, 2405, 2421, 2422, 2423, 2424, 2425, 2441, 2442, 2443, 2444, 2461, 2462, 2463, 2464
2481, 2482, 2483, 2484, 2501, 2502, 2503, 2504, 2521, 2522, 2523, 2524, 2541, 2542, 2543, 2801
2802, 2803, 2804, 2805, 2821, 2822, 2823, 2824, 2825, 2841, 2842, 2843, 2844, 2845, 2861, 2862
2863, 2864, 2881, 2882, 2883, 2884, 2901, 2902, 2903, 2904, 2921, 2922, 2923, 2924, 2941, 2942
2962, 3201, 3202, 3203, 3204, 3205, 3206, 3221, 3222, 3223, 3224, 3225, 3241, 3242, 3243, 3244
3245, 3261, 3262, 3263, 3264, 3265, 3281, 3282, 3283, 3284, 3301, 3302, 3303, 3304, 3321, 3322
3323, 3601, 3602, 3603, 3604, 3605, 3621, 3622, 3623, 3624, 3625, 3641, 3642, 3643, 3644, 3645
3661, 3662, 3663, 3664, 3681, 3682, 3683, 3684, 3701, 3702, 3703, 3704, 3722, 3723, 3724, 4001
4002, 4003, 4004, 4005, 4021, 4022, 4023, 4024, 4025, 4041, 4042, 4043, 4044, 4061, 4062, 4063
4064, 4081, 4082, 4083, 4084, 4101, 4102, 4103, 4104, 4121, 4122, 4123, 4124, 4143, 4401, 4402
4403, 4404, 4421, 4422, 4423, 4424, 4441, 4442, 4443, 4461, 4462, 4481, 4501, 4502, 4521, 4522
4801, 4802, 4821, 4841, 4861, 4862, 4901, 4902, 4921, 4922, 5201, 5202, 5301, 5302, 5321, 5322
5601, 5602, 5701, 5702, 6001, 6002, 6401, 6801
*Elset, elset=Needle37
3088, 3109, 3110, 3130, 3131, 3151, 3152, 3172, 3173, 3174, 3194, 3195, 3487, 3508, 3509, 3510
3511, 3529, 3530, 3531, 3532, 3550, 3551, 3552, 3553, 3554, 3571, 3572, 3573, 3574, 3575, 3592
3593, 3594, 3595, 3596, 3866, 3887, 3909, 3930, 3931, 3951, 3952, 3972, 3973, 3974, 3994, 3995
*Elset, elset=Needle38
3001, 3401, 3402, 3421
*Elset, elset=Needle39
1632, 1651, 1670, 2010, 2011, 2012, 2013, 2014, 2029, 2030, 2031, 2032, 2033, 2034, 2048, 2049
2050, 2051, 2052, 2053, 2054, 2068, 2069, 2070, 2071, 2072, 2073, 2088, 2089, 2090, 2091, 2092
2109, 2110, 2111, 2127, 2409, 2410, 2411, 2412, 2413, 2414, 2415, 2428, 2429, 2430, 2431, 2432
2433, 2434, 2435, 2447, 2448, 2449, 2450, 2451, 2452, 2453, 2454, 2455, 2466, 2467, 2468, 2469
2470, 2471, 2472, 2473, 2474, 2486, 2487, 2488, 2489, 2490, 2491, 2492, 2493, 2505, 2506, 2507
2508, 2509, 2510, 2511, 2512, 2525, 2526, 2527, 2528, 2529, 2530, 2531, 2545, 2546, 2547, 2548
2549, 2564, 2566, 2567, 2568, 2808, 2809, 2810, 2811, 2812, 2813, 2814, 2815, 2827, 2828, 2829
2830, 2831, 2832, 2833, 2834, 2835, 2846, 2847, 2848, 2849, 2850, 2851, 2852, 2853, 2854, 2855
2866, 2867, 2868, 2869, 2870, 2871, 2872, 2873, 2874, 2875, 2885, 2886, 2887, 2888, 2889, 2890
2891, 2892, 2893, 2894, 2905, 2906, 2907, 2908, 2909, 2910, 2911, 2912, 2913, 2925, 2926, 2927
2928, 2929, 2930, 2931, 2932, 2943, 2944, 2945, 2946, 2947, 2948, 2949, 2963, 2964, 2965, 2966
2983, 2984, 2985, 3208, 3209, 3210, 3211, 3212, 3213, 3214, 3215, 3227, 3228, 3229, 3230, 3231
3232, 3233, 3234, 3235, 3236, 3246, 3247, 3248, 3249, 3250, 3251, 3252, 3253, 3254, 3255, 3266
3267, 3268, 3269, 3270, 3271, 3272, 3273, 3274, 3275, 3285, 3286, 3287, 3288, 3289, 3290, 3291
3292, 3293, 3294, 3305, 3306, 3307, 3308, 3309, 3310, 3311, 3312, 3313, 3324, 3325, 3326, 3327
3328, 3329, 3330, 3331, 3332, 3343, 3344, 3345, 3346, 3347, 3348, 3349, 3350, 3363, 3364, 3365
3383, 3608, 3609, 3610, 3611, 3612, 3613, 3614, 3615, 3616, 3627, 3628, 3629, 3630, 3631, 3632
3633, 3634, 3635, 3636, 3646, 3647, 3648, 3649, 3650, 3651, 3652, 3653, 3654, 3655, 3666, 3667
3668, 3669, 3670, 3671, 3672, 3673, 3674, 3675, 3676, 3685, 3686, 3687, 3688, 3689, 3690, 3691
3692, 3693, 3694, 3705, 3706, 3707, 3708, 3709, 3710, 3711, 3712, 3713, 3725, 3726, 3727, 3728
** ... 14 like lines cut
*Elset, elset=Needle40
3083, 3123, 3143, 3163, 3183, 3423, 3443, 3462, 3463, 3464, 3482, 3483, 3484, 3502, 3503, 3504
3522, 3523, 3524, 3542, 3543, 3544, 3562, 3563, 3564, 3582, 3583, 3584, 3822, 3842, 3843, 3844
3862, 3863, 3864, 3881, 3882, 3883, 3884, 3885, 3902, 3903, 3904, 3921, 3922, 3923, 3924, 3925
3941, 3942, 3943, 3944, 3945, 3961, 3962, 3963, 3964, 3965, 3981, 3982, 3983, 3984, 3985, 4222
4223, 4243, 4262, 4263, 4264, 4282, 4283, 4284, 4302, 4303, 4304, 4322, 4323, 4324, 4342, 4343
4344, 4362, 4363, 4364, 4382, 4383, 4384, 4623, 4664, 4683, 4723, 4743, 4763, 4783, 5123
*Elset, elset=Needle41
2961, 3341, 3342, 3361, 3362, 3381, 3382, 3721, 3741, 3742, 3761, 3762, 3763, 3781, 3782, 3801
4141, 4142, 4161, 4162, 4181, 4182, 4201, 4541, 4542, 4561, 4562, 4581, 4582, 4941, 4961, 4962
*Elset, elset=Needle42
1834, 1837, 1859, 2174, 2177, 2192, 2193, 2194, 2195, 2196, 2197, 2198, 2199, 2212, 2213, 2214
2215, 2216, 2217, 2218, 2219, 2220, 2230, 2231, 2232, 2233, 2234, 2235, 2236, 2237, 2238, 2239
2240, 2252, 2253, 2254, 2255, 2256, 2257, 2258, 2259, 2260, 2272, 2273, 2274, 2275, 2276, 2277
2278, 2279, 2280, 2294, 2297, 2298, 2299, 2300, 2319, 2554, 2557, 2572, 2573, 2574, 2575, 2576
2577, 2578, 2579, 2589, 2590, 2591, 2592, 2593, 2594, 2595, 2596, 2597, 2598, 2599, 2600, 2608
2609, 2610, 2611, 2612, 2613, 2614, 2615, 2616, 2617, 2618, 2619, 2620, 2628, 2629, 2630, 2631
2632, 2633, 2634, 2635, 2636, 2637, 2638, 2639, 2640, 2648, 2649, 2650, 2651, 2652, 2653, 2654
2655, 2656, 2657, 2658, 2659, 2660, 2669, 2670, 2671, 2672, 2673, 2674, 2675, 2676, 2677, 2678
2679, 2680, 2692, 2693, 2694, 2695, 2696, 2697, 2698, 2699, 2700, 2714, 2717, 2718, 2719, 2720
2739, 2952, 2953, 2954, 2955, 2956, 2957, 2958, 2959, 2967, 2968, 2969, 2970, 2971, 2972, 2973
2974, 2975, 2976, 2977, 2978, 2979, 2980, 2986, 2987, 2988, 2989, 2990, 2991, 2992, 2993, 2994
2995, 2996, 2997, 2998, 2999, 3000, 3005, 3006, 3007, 3008, 3009, 3010, 3011, 3012, 3013, 3014
3015, 3016, 3017, 3018, 3019, 3020, 3026, 3027, 3028, 3029, 3030, 3031, 3032, 3033, 3034, 3035
3036, 3037, 3038, 3039, 3040, 3047, 3048, 3049, 3050, 3051, 3052, 3053, 3054, 3055, 3056, 3057
3058, 3059, 3060, 3068, 3069, 3070, 3071, 3072, 3073, 3074, 3075, 3076, 3077, 3078, 3079, 3080
3089, 3090, 3091, 3092, 3093, 3094, 3095, 3096, 3097, 3098, 3099, 3100, 3112, 3113, 3114, 3115
3116, 3117, 3118, 3119, 3120, 3137, 3138, 3139, 3140, 3352, 3353, 3354, 3355, 3356, 3357, 3358
3359, 3366, 3367, 3368, 3369, 3370, 3371, 3372, 3373, 3374, 3375, 3376, 3377, 3378, 3379, 3380
3384, 3385, 3386, 3387, 3388, 3389, 3390, 3391, 3392, 3393, 3394, 3395, 3396, 3397, 3398, 3399
3400, 3404, 3405, 3406, 3407, 3408, 3409, 3410, 3411, 3412, 3413, 3414, 3415, 3416, 3417, 3418
** ... 42 like lines cut
*Elset, elset=Needle43
3403, 3783, 3802, 3803, 3804, 3823, 4183, 4203, 4603
*Elset, elset=Needle44
4680, 5039, 5040, 5058, 5059, 5060, 5076, 5078, 5079, 5080, 5098, 5099, 5100, 5119, 5120, 5435
5436, 5437, 5438, 5439, 5440, 5454, 5455, 5456, 5457, 5458, 5459, 5460, 5473, 5474, 5475, 5476
5477, 5478, 5479, 5480, 5494, 5495, 5496, 5497, 5498, 5499, 5500, 5515, 5516, 5517, 5518, 5519
5520, 5800, 5820, 5834, 5835, 5836, 5837, 5838, 5839, 5840, 5852, 5853, 5854, 5855, 5856, 5857
5858, 5859, 5860, 5872, 5873, 5874, 5875, 5876, 5877, 5878, 5879, 5880, 5891, 5892, 5893, 5894
5895, 5896, 5897, 5898, 5899, 5900, 5915, 5916, 5917, 5918, 5919, 5920, 5940, 5960, 6176, 6178
6179, 6180, 6195, 6196, 6197, 6198, 6199, 6200, 6213, 6214, 6215, 6216, 6217, 6218, 6219, 6220
6233, 6234, 6235, 6236, 6237, 6238, 6239, 6240, 6252, 6253, 6254, 6255, 6256, 6257, 6258, 6259
6260, 6272, 6273, 6274, 6275, 6276, 6277, 6278, 6279, 6280, 6292, 6294, 6295, 6296, 6297, 6298
6299, 6300, 6315, 6316, 6317, 6318, 6319, 6320, 6337, 6338, 6339, 6340, 6358, 6359, 6360, 6558
6576, 6577, 6578, 6579, 6580, 6595, 6596, 6597, 6598, 6599, 6600, 6613, 6614, 6615, 6616, 6617
6618, 6619, 6620, 6632, 6633, 6634, 6635, 6636, 6637, 6638, 6639, 6640, 6652, 6653, 6654, 6655
6656, 6657, 6658, 6659, 6660, 6672, 6673, 6674, 6675, 6676, 6677, 6678, 6679, 6680, 6692, 6693
6694, 6695, 6696, 6697, 6698, 6699, 6700, 6715, 6716, 6717, 6718, 6719, 6720, 6737, 6738, 6739
6740, 6758, 6759, 6760, 6779, 6780, 6957, 6958, 6959, 6960, 6976, 6977, 6978, 6979, 6980, 6995
6996, 6997, 6998, 6999, 7000, 7014, 7015, 7016, 7017, 7018, 7019, 7020, 7032, 7033, 7034, 7035
7036, 7037, 7038, 7039, 7040, 7052, 7053, 7054, 7055, 7056, 7057, 7058, 7059, 7060, 7072, 7073
7074, 7075, 7076, 7077, 7078, 7079, 7080, 7091, 7092, 7093, 7094, 7095, 7096, 7097, 7098, 7099
7100, 7115, 7116, 7117, 7118, 7119, 7120, 7137, 7138, 7139, 7140, 7158, 7159, 7160, 7179, 7180
7200, 7338, 7356, 7357, 7358, 7359, 7360, 7375, 7376, 7377, 7378, 7379, 7380, 7394, 7395, 7396
** ... 10 like lines cut
*Elset, elset=Needle45
5165, 5185, 5508, 5524, 5525, 5526, 5527, 5543, 5544, 5545, 5546, 5547, 5563, 5564, 5565, 5566
5567, 5583, 5584, 5585, 5586, 5587, 5906, 5907, 5908, 5909, 5910, 5923, 5924, 5925, 5926, 5927
5928, 5929, 5930, 5941, 5942, 5943, 5944, 5945, 5946, 5947, 5948, 5949, 5950, 5962, 5963, 5964
5965, 5966, 5967, 5968, 5969, 5981, 5982, 5983, 5984, 5985, 5986, 5987, 5988, 5989, 6307, 6309
6322, 6324, 6325, 6326, 6327, 6328, 6329, 6342, 6343, 6344, 6345, 6346, 6347, 6348, 6349, 6350
6361, 6362, 6363, 6364, 6365, 6366, 6367, 6368, 6369, 6370, 6381, 6382, 6383, 6384, 6385, 6386
6387, 6388, 6389, 6390, 6706, 6707, 6708, 6709, 6722, 6723, 6724, 6725, 6726, 6727, 6728, 6729
6730, 6741, 6742, 6743, 6744, 6745, 6746, 6747, 6748, 6749, 6750, 6761, 6762, 6763, 6764, 6765
6766, 6767, 6768, 6769, 6770, 6781, 6782, 6783, 6784, 6785, 6786, 6787, 6788, 6789, 6790, 7088
7089, 7090, 7105, 7106, 7107, 7108, 7109, 7110, 7122, 7123, 7124, 7125, 7126, 7127, 7128, 7129
7130, 7141, 7142, 7143, 7144, 7145, 7146, 7147, 7148, 7149, 7150, 7161, 7162, 7163, 7164, 7165
7166, 7167, 7168, 7169, 7170, 7181, 7182, 7183, 7184, 7185, 7186, 7187, 7188, 7189, 7190, 7470
7486, 7487, 7488, 7489, 7490, 7504, 7505, 7506, 7507, 7508, 7509, 7510, 7522, 7523, 7524, 7525
7526, 7527, 7528, 7529, 7530, 7541, 7542, 7543, 7544, 7545, 7546, 7547, 7548, 7549, 7550, 7561
7562, 7563, 7564, 7565, 7566, 7567, 7568, 7569, 7570, 7581, 7582, 7583, 7584, 7585, 7586, 7587
7588, 7589, 7590, 7867, 7868, 7869, 7870, 7886, 7887, 7888, 7889, 7890, 7891, 7904, 7905, 7906
7907, 7908, 7909, 7910, 7911, 7921, 7922, 7923, 7924, 7925, 7926, 7927, 7928, 7929, 7930, 7931
7941, 7942, 7943, 7944, 7945, 7946, 7947, 7948, 7949, 7950, 7961, 7962, 7963, 7964, 7965, 7966
7967, 7968, 7969, 7970, 7981, 7982, 7983, 7984, 7985, 7986, 7987, 7988, 7989, 7990
*Elset, elset=Needle46
5209, 5210, 5211, 5212, 5213, 5229, 5230, 5231, 5249, 5250, 5251, 5252, 5253, 5271, 5272, 5273
5289, 5290, 5291, 5292, 5293, 5309, 5310, 5311, 5312, 5313, 5329, 5330, 5331, 5332, 5333, 5349
5350, 5351, 5352, 5370, 5371, 5608, 5609, 5610, 5611, 5612, 5613, 5614, 5615, 5616, 5617, 5628
5629, 5630, 5631, 5632, 5633, 5634, 5635, 5636, 5648, 5649, 5650, 5651, 5652, 5653, 5654, 5655
5656, 5667, 5668, 5669, 5670, 5671, 5672, 5673, 5674, 5675, 5687, 5688, 5689, 5690, 5691, 5692
5693, 5694, 5695, 5707, 5708, 5709, 5710, 5711, 5712, 5713, 5714, 5715, 5727, 5728, 5729, 5730
5731, 5732, 5733, 5734, 5735, 5747, 5748, 5749, 5750, 5751, 5752, 5753, 5768, 5769, 5770, 5771
5772, 5773, 5789, 5790, 5791, 5792, 5810, 5811, 5830, 5850, 5851, 6007, 6008, 6009, 6010, 6011
6012, 6013, 6014, 6015, 6016, 6017, 6027, 6028, 6029, 6030, 6031, 6032, 6033, 6034, 6035, 6036
6037, 6047, 6048, 6049, 6050, 6051, 6052, 6053, 6054, 6055, 6056, 6066, 6067, 6068, 6069, 6070
6071, 6072, 6073, 6074, 6075, 6076, 6086, 6087, 6088, 6089, 6090, 6091, 6092, 6093, 6094, 6095
6096, 6106, 6107, 6108, 6109, 6110, 6111, 6112, 6113, 6114, 6115, 6116, 6126, 6127, 6128, 6129
6130, 6131, 6132, 6133, 6134, 6135, 6147, 6148, 6149, 6150, 6151, 6152, 6153, 6154, 6155, 6168
6169, 6170, 6171, 6172, 6173, 6174, 6175, 6189, 6190, 6191, 6192, 6193, 6194, 6209, 6210, 6211
6212, 6229, 6230, 6231, 6232, 6251, 6406, 6407, 6408, 6409, 6410, 6411, 6412, 6413, 6414, 6415
6416, 6417, 6418, 6426, 6427, 6428, 6429, 6430, 6431, 6432, 6433, 6434, 6435, 6436, 6437, 6446
6447, 6448, 6449, 6450, 6451, 6452, 6453, 6454, 6455, 6456, 6457, 6466, 6467, 6468, 6469, 6470
6471, 6472, 6473, 6474, 6475, 6476, 6477, 6486, 6487, 6488, 6489, 6490, 6491, 6492, 6493, 6494
6495, 6496, 6506, 6507, 6508, 6509, 6510, 6511, 6512, 6513, 6514, 6515, 6516, 6526, 6527, 6528
6529, 6530, 6531, 6532, 6533, 6534, 6535, 6536, 6547, 6548, 6549, 6550, 6551, 6552, 6553, 6554
** ... 24 like lines cut
*Elset, elset=Needle47
5174, 5511, 5533, 5534, 5535, 5552, 5553, 5554, 5555, 5556, 5572, 5573, 5574, 5575, 5576, 5592
5593, 5594, 5595, 5596, 5911, 5912, 5913, 5914, 5931, 5932, 5933, 5934, 5935, 5936, 5951, 5952
5953, 5954, 5955, 5956, 5971, 5972, 5973, 5974, 5975, 5976, 5991, 5992, 5993, 5994, 5995, 5996
6291, 6293, 6310, 6311, 6312, 6313, 6314, 6330, 6331, 6332, 6333, 6334, 6335, 6336, 6351, 6352
6353, 6354, 6355, 6356, 6357, 6371, 6372, 6373, 6374, 6375, 6376, 6377, 6378, 6391, 6392, 6393
6394, 6395, 6396, 6397, 6398, 6691, 6710, 6711, 6712, 6713, 6714, 6731, 6732, 6733, 6734, 6735
6736, 6751, 6752, 6753, 6754, 6755, 6756, 6757, 6771, 6772, 6773, 6774, 6775, 6776, 6777, 6778
6791, 6792, 6793, 6794, 6795, 6796, 6797, 6798, 6799, 7111, 7112, 7113, 7114, 7131, 7132, 7133
7134, 7135, 7136, 7151, 7152, 7153, 7154, 7155, 7156, 7157, 7171, 7172, 7173, 7174, 7175, 7176
7177, 7178, 7191, 7192, 7193, 7194, 7195, 7196, 7197, 7198, 7199, 7511, 7512, 7513, 7531, 7532
7533, 7534, 7535, 7551, 7552, 7553, 7554, 7555, 7556, 7557, 7571, 7572, 7573, 7574, 7575, 7576
7577, 7578, 7591, 7592, 7593, 7594, 7595, 7596, 7597, 7598, 7599, 7912, 7913, 7932, 7933, 7934
7935, 7951, 7952, 7953, 7954, 7955, 7956, 7957, 7971, 7972, 7973, 7974, 7975, 7976, 7977, 7978
7991, 7992, 7993, 7994, 7995, 7996, 7997, 7998, 7999
*Elset, elset=Needle48
4601, 4622, 4641, 4643, 4964, 4981, 4982, 4983, 4984, 5001, 5002, 5003, 5004, 5021, 5022, 5023
5024, 5025, 5041, 5042, 5043, 5044, 5045, 5046, 5061, 5062, 5063, 5064, 5065, 5081, 5082, 5083
5084, 5341, 5342, 5344, 5361, 5362, 5363, 5364, 5365, 5366, 5381, 5382, 5383, 5384, 5385, 5386
5387, 5401, 5402, 5403, 5404, 5405, 5406, 5407, 5421, 5422, 5423, 5424, 5425, 5426, 5427, 5428
5441, 5442, 5443, 5444, 5445, 5446, 5447, 5448, 5461, 5462, 5463, 5464, 5465, 5466, 5467, 5468
5481, 5482, 5483, 5484, 5485, 5486, 5487, 5488, 5489, 5501, 5502, 5503, 5504, 5505, 5506, 5523
5721, 5722, 5723, 5724, 5741, 5742, 5743, 5744, 5745, 5746, 5761, 5762, 5763, 5764, 5765, 5766
5767, 5781, 5782, 5783, 5784, 5785, 5786, 5787, 5788, 5801, 5802, 5803, 5804, 5805, 5806, 5807
5808, 5809, 5821, 5822, 5823, 5824, 5825, 5826, 5827, 5828, 5829, 5841, 5842, 5843, 5844, 5845
5846, 5847, 5848, 5849, 5861, 5862, 5863, 5864, 5865, 5866, 5867, 5868, 5869, 5870, 5871, 5881
5882, 5883, 5884, 5885, 5886, 5887, 5888, 5889, 5890, 5901, 5902, 5903, 5904, 5905, 5921, 5922
6101, 6102, 6103, 6121, 6122, 6123, 6124, 6125, 6141, 6142, 6143, 6144, 6145, 6146, 6161, 6162
6163, 6164, 6165, 6166, 6167, 6181, 6182, 6183, 6184, 6185, 6186, 6187, 6188, 6201, 6202, 6203
6204, 6205, 6206, 6207, 6208, 6221, 6222, 6223, 6224, 6225, 6226, 6227, 6228, 6241, 6242, 6243
6244, 6245, 6246, 6247, 6248, 6249, 6250, 6261, 6262, 6263, 6264, 6265, 6266, 6267, 6268, 6269
6270, 6271, 6281, 6282, 6283, 6284, 6285, 6286, 6287, 6288, 6289, 6290, 6301, 6302, 6303, 6304
6305, 6306, 6308, 6321, 6323, 6341, 6481, 6501, 6502, 6503, 6504, 6505, 6521, 6522, 6523, 6524
6525, 6541, 6542, 6543, 6544, 6545, 6546, 6561, 6562, 6563, 6564, 6565, 6566, 6567, 6581, 6582
6583, 6584, 6585, 6586, 6587, 6588, 6601, 6602, 6603, 6604, 6605, 6606, 6607, 6608, 6621, 6622
6623, 6624, 6625, 6626, 6627, 6628, 6641, 6642, 6643, 6644, 6645, 6646, 6647, 6648, 6649, 6661
** ... 18 like lines cut
**
** ----------------------------------------------------------------
**                   BOUNDARY NODE SETS
** ----------------------------------------------------------------
** z = 0 (bottom face)
*Nset, nset=Bottom_Z
1, 22, 43, 64, 85, 106, 127, 148, 169, 190, 211, 232, 253, 274, 295, 316
337, 358, 379, 400, 421, 2, 23, 44, 65, 86, 107, 128, 149, 170, 191, 212
233, 254, 275, 296, 317, 338, 359, 380, 401, 422, 3, 24, 45, 66, 87, 108
129, 150, 171, 192, 213, 234, 255, 276, 297, 318, 339, 360, 381, 402, 423, 4
25, 46, 67, 88, 109, 130, 151, 172, 193, 214, 235, 256, 277, 298, 319, 340
361, 382, 403, 424, 5, 26, 47, 68, 89, 110, 131, 152, 173, 194, 215, 236
257, 278, 299, 320, 341, 362, 383, 404, 425, 6, 27, 48, 69, 90, 111, 132
153, 174, 195, 216, 237, 258, 279, 300, 321, 342, 363, 384, 405, 426, 7, 28
49, 70, 91, 112, 133, 154, 175, 196, 217, 238, 259, 280, 301, 322, 343, 364
385, 406, 427, 8, 29, 50, 71, 92, 113, 134, 155, 176, 197, 218, 239, 260
281, 302, 323, 344, 365, 386, 407, 428, 9, 30, 51, 72, 93, 114, 135, 156
177, 198, 219, 240, 261, 282, 303, 324, 345, 366, 387, 408, 429, 10, 31, 52
73, 94, 115, 136, 157, 178, 199, 220, 241, 262, 283, 304, 325, 346, 367, 388
409, 430, 11, 32, 53, 74, 95, 116, 137, 158, 179, 200, 221, 242, 263, 284
305, 326, 347, 368, 389, 410, 431, 12, 33, 54, 75, 96, 117, 138, 159, 180
201, 222, 243, 264, 285, 306, 327, 348, 369, 390, 411, 432, 13, 34, 55, 76
97, 118, 139, 160, 181, 202, 223, 244, 265, 286, 307, 328, 349, 370, 391, 412
433, 14, 35, 56, 77, 98, 119, 140, 161, 182, 203, 224, 245, 266, 287, 308
329, 350, 371, 392, 413, 434, 15, 36, 57, 78, 99, 120, 141, 162, 183, 204
225, 246, 267, 288, 309, 330, 351, 372, 393, 414, 435, 16, 37, 58, 79, 100
** ... 8 like lines cut
** z = 10 (top face)
*Nset, nset=Top_Z
8821, 8842, 8863, 8884, 8905, 8926, 8947, 8968, 8989, 9010, 9031, 9052, 9073, 9094, 9115, 9136
9157, 9178, 9199, 9220, 9241, 8822, 8843, 8864, 8885, 8906, 8927, 8948, 8969, 8990, 9011, 9032
9053, 9074, 9095, 9116, 9137, 9158, 9179, 9200, 9221, 9242, 8823, 8844, 8865, 8886, 8907, 8928
8949, 8970, 8991, 9012, 9033, 9054, 9075, 9096, 9117, 9138, 9159, 9180, 9201, 9222, 9243, 8824
8845, 8866, 8887, 8908, 8929, 8950, 8971, 8992, 9013, 9034, 9055, 9076, 9097, 9118, 9139, 9160
9181, 9202, 9223, 9244, 8825, 8846, 8867, 8888, 8909, 8930, 8951, 8972, 8993, 9014, 9035, 9056
9077, 9098, 9119, 9140, 9161, 9182, 9203, 9224, 9245, 8826, 8847, 8868, 8889, 8910, 8931, 8952
8973, 8994, 9015, 9036, 9057, 9078, 9099, 9120, 9141, 9162, 9183, 9204, 9225, 9246, 8827, 8848
8869, 8890, 8911, 8932, 8953, 8974, 8995, 9016, 9037, 9058, 9079, 9100, 9121, 9142, 9163, 9184
9205, 9226, 9247, 8828, 8849, 8870, 8891, 8912, 8933, 8954, 8975, 8996, 9017, 9038, 9059, 9080
9101, 9122, 9143, 9164, 9185, 9206, 9227, 9248, 8829, 8850, 8871, 8892, 8913, 8934, 8955, 8976
8997, 9018, 9039, 9060, 9081, 9102, 9123, 9144, 9165, 9186, 9207, 9228, 9249, 8830, 8851, 8872
8893, 8914, 8935, 8956, 8977, 8998, 9019, 9040, 9061, 9082, 9103, 9124, 9145, 9166, 9187, 9208
9229, 9250, 8831, 8852, 8873, 8894, 8915, 8936, 8957, 8978, 8999, 9020, 9041, 9062, 9083, 9104
9125, 9146, 9167, 9188, 9209, 9230, 9251, 8832, 8853, 8874, 8895, 8916, 8937, 8958, 8979, 9000
9021, 9042, 9063, 9084, 9105, 9126, 9147, 9168, 9189, 9210, 9231, 9252, 8833, 8854, 8875, 8896
8917, 8938, 8959, 8980, 9001, 9022, 9043, 9064, 9085, 9106, 9127, 9148, 9169, 9190, 9211, 9232
9253, 8834, 8855, 8876, 8897, 8918, 8939, 8960, 8981, 9002, 9023, 9044, 9065, 9086, 9107, 9128
9149, 9170, 9191, 9212, 9233, 9254, 8835, 8856, 8877, 8898, 8919, 8940, 8961, 8982, 9003, 9024
9045, 9066, 9087, 9108, 9129, 9150, 9171, 9192, 9213, 9234, 9255, 8836, 8857, 8878, 8899, 8920
** ... 8 like lines cut
** x = 0 (left face)
*Nset, nset=Bottom_X
1, 442, 883, 1324, 1765, 2206, 2647, 3088, 3529, 3970, 4411, 4852, 5293, 5734, 6175, 6616
7057, 7498, 7939, 8380, 8821, 22, 463, 904, 1345, 1786, 2227, 2668, 3109, 3550, 3991, 4432
4873, 5314, 5755, 6196, 6637, 7078, 7519, 7960, 8401, 8842, 43, 484, 925, 1366, 1807, 2248
2689, 3130, 3571, 4012, 4453, 4894, 5335, 5776, 6217, 6658, 7099, 7540, 7981, 8422, 8863, 64
505, 946, 1387, 1828, 2269, 2710, 3151, 3592, 4033, 4474, 4915, 5356, 5797, 6238, 6679, 7120
7561, 8002, 8443, 8884, 85, 526, 967, 1408, 1849, 2290, 2731, 3172, 3613, 4054, 4495, 4936
5377, 5818, 6259, 6700, 7141, 7582, 8023, 8464, 8905, 106, 547, 988, 1429, 1870, 2311, 2752
3193, 3634, 4075, 4516, 4957, 5398, 5839, 6280, 6721, 7162, 7603, 8044, 8485, 8926, 127, 568
1009, 1450, 1891, 2332, 2773, 3214, 3655, 4096, 4537, 4978, 5419, 5860, 6301, 6742, 7183, 7624
8065, 8506, 8947, 148, 589, 1030, 1471, 1912, 2353, 2794, 3235, 3676, 4117, 4558, 4999, 5440
5881, 6322, 6763, 7204, 7645, 8086, 8527, 8968, 169, 610, 1051, 1492, 1933, 2374, 2815, 3256
3697, 4138, 4579, 5020, 5461, 5902, 6343, 6784, 7225, 7666, 8107, 8548, 8989, 190, 631, 1072
1513, 1954, 2395, 2836, 3277, 3718, 4159, 4600, 5041, 5482, 5923, 6364, 6805, 7246, 7687, 8128
8569, 9010, 211, 652, 1093, 1534, 1975, 2416, 2857, 3298, 3739, 4180, 4621, 5062, 5503, 5944
6385, 6826, 7267, 7708, 8149, 8590, 9031, 232, 673, 1114, 1555, 1996, 2437, 2878, 3319, 3760
4201, 4642, 5083, 5524, 5965, 6406, 6847, 7288, 7729, 8170, 8611, 9052, 253, 694, 1135, 1576
2017, 2458, 2899, 3340, 3781, 4222, 4663, 5104, 5545, 5986, 6427, 6868, 7309, 7750, 8191, 8632
9073, 274, 715, 1156, 1597, 2038, 2479, 2920, 3361, 3802, 4243, 4684, 5125, 5566, 6007, 6448
6889, 7330, 7771, 8212, 8653, 9094, 295, 736, 1177, 1618, 2059, 2500, 2941, 3382, 3823, 4264
4705, 5146, 5587, 6028, 6469, 6910, 7351, 7792, 8233, 8674, 9115, 316, 757, 1198, 1639, 2080
** ... 8 like lines cut
** x = 10 (right face)
*Nset, nset=Top_X
21, 462, 903, 1344, 1785, 2226, 2667, 3108, 3549, 3990, 4431, 4872, 5313, 5754, 6195, 6636
7077, 7518, 7959, 8400, 8841, 42, 483, 924, 1365, 1806, 2247, 2688, 3129, 3570, 4011, 4452
4893, 5334, 5775, 6216, 6657, 7098, 7539, 7980, 8421, 8862, 63, 504, 945, 1386, 1827, 2268
2709, 3150, 3591, 4032, 4473, 4914, 5355, 5796, 6237, 6678, 7119, 7560, 8001, 8442, 8883, 84
525, 966, 1407, 1848, 2289, 2730, 3171, 3612, 4053, 4494, 4935, 5376, 5817, 6258, 6699, 7140
7581, 8022, 8463, 8904, 105, 546, 987, 1428, 1869, 2310, 2751, 3192, 3633, 4074, 4515, 4956
5397, 5838, 6279, 6720, 7161, 7602, 8043, 8484, 8925, 126, 567, 1008, 1449, 1890, 2331, 2772
3213, 3654, 4095, 4536, 4977, 5418, 5859, 6300, 6741, 7182, 7623, 8064, 8505, 8946, 147, 588
1029, 1470, 1911, 2352, 2793, 3234, 3675, 4116, 4557, 4998, 5439, 5880, 6321, 6762, 7203, 7644
8085, 8526, 8967, 168, 609, 1050, 1491, 1932, 2373, 2814, 3255, 3696, 4137, 4578, 5019, 5460
5901, 6342, 6783, 7224, 7665, 8106, 8547, 8988, 189, 630, 1071, 1512, 1953, 2394, 2835, 3276
3717, 4158, 4599, 5040, 5481, 5922, 6363, 6804, 7245, 7686, 8127, 8568, 9009, 210, 651, 1092
1533, 1974, 2415, 2856, 3297, 3738, 4179, 4620, 5061, 5502, 5943, 6384, 6825, 7266, 7707, 8148
8589, 9030, 231, 672, 1113, 1554, 1995, 2436, 2877, 3318, 3759, 4200, 4641, 5082, 5523, 5964
6405, 6846, 7287, 7728, 8169, 8610, 9051, 252, 693, 1134, 1575, 2016, 2457, 2898, 3339, 3780
4221, 4662, 5103, 5544, 5985, 6426, 6867, 7308, 7749, 8190, 8631, 9072, 273, 714, 1155, 1596
2037, 2478, 2919, 3360, 3801, 4242, 4683, 5124, 5565, 6006, 6447, 6888, 7329, 7770, 8211, 8652
9093, 294, 735, 1176, 1617, 2058, 2499, 2940, 3381, 3822, 4263, 4704, 5145, 5586, 6027, 6468
6909, 7350, 7791, 8232, 8673, 9114, 315, 756, 1197, 1638, 2079, 2520, 2961, 3402, 3843, 4284
4725, 5166, 5607, 6048, 6489, 6930, 7371, 7812, 8253, 8694, 9135, 336, 777, 1218, 1659, 2100
** ... 8 like lines cut
** y = 0 (front face)
*Nset, nset=Bottom_Y
1, 442, 883, 1324, 1765, 2206, 2647, 3088, 3529, 3970, 4411, 4852, 5293, 5734, 6175, 6616
7057, 7498, 7939, 8380, 8821, 2, 443, 884, 1325, 1766, 2207, 2648, 3089, 3530, 3971, 4412
4853, 5294, 5735, 6176, 6617, 7058, 7499, 7940, 8381, 8822, 3, 444, 885, 1326, 1767, 2208
2649, 3090, 3531, 3972, 4413, 4854, 5295, 5736, 6177, 6618, 7059, 7500, 7941, 8382, 8823, 4
445, 886, 1327, 1768, 2209, 2650, 3091, 3532, 3973, 4414, 4855, 5296, 5737, 6178, 6619, 7060
7501, 7942, 8383, 8824, 5, 446, 887, 1328, 1769, 2210, 2651, 3092, 3533, 3974, 4415, 4856
5297, 5738, 6179, 6620, 7061, 7502, 7943, 8384, 8825, 6, 447, 888, 1329, 1770, 2211, 2652
3093, 3534, 3975, 4416, 4857, 5298, 5739, 6180, 6621, 7062, 7503, 7944, 8385, 8826, 7, 448
889, 1330, 1771, 2212, 2653, 3094, 3535, 3976, 4417, 4858, 5299, 5740, 6181, 6622, 7063, 7504
7945, 8386, 8827, 8, 449, 890, 1331, 1772, 2213, 2654, 3095, 3536, 3977, 4418, 4859, 5300
5741, 6182, 6623, 7064, 7505, 7946, 8387, 8828, 9, 450, 891, 1332, 1773, 2214, 2655, 3096
3537, 3978, 4419, 4860, 5301, 5742, 6183, 6624, 7065, 7506, 7947, 8388, 8829, 10, 451, 892
1333, 1774, 2215, 2656, 3097, 3538, 3979, 4420, 4861, 5302, 5743, 6184, 6625, 7066, 7507, 7948
8389, 8830, 11, 452, 893, 1334, 1775, 2216, 2657, 3098, 3539, 3980, 4421, 4862, 5303, 5744
6185, 6626, 7067, 7508, 7949, 8390, 8831, 12, 453, 894, 1335, 1776, 2217, 2658, 3099, 3540
3981, 4422, 4863, 5304, 5745, 6186, 6627, 7068, 7509, 7950, 8391, 8832, 13, 454, 895, 1336
1777, 2218, 2659, 3100, 3541, 3982, 4423, 4864, 5305, 5746, 6187, 6628, 7069, 7510, 7951, 8392
8833, 14, 455, 896, 1337, 1778, 2219, 2660, 3101, 3542, 3983, 4424, 4865, 5306, 5747, 6188
6629, 7070, 7511, 7952, 8393, 8834, 15, 456, 897, 1338, 1779, 2220, 2661, 3102, 3543, 3984
4425, 4866, 5307, 5748, 6189, 6630, 7071, 7512, 7953, 8394, 8835, 16, 457, 898, 1339, 1780
** ... 8 like lines cut
** y = 10 (back face)
*Nset, nset=Top_Y
421, 862, 1303, 1744, 2185, 2626, 3067, 3508, 3949, 4390, 4831, 5272, 5713, 6154, 6595, 7036
7477, 7918, 8359, 8800, 9241, 422, 863, 1304, 1745, 2186, 2627, 3068, 3509, 3950, 4391, 4832
5273, 5714, 6155, 6596, 7037, 7478, 7919, 8360, 8801, 9242, 423, 864, 1305, 1746, 2187, 2628
3069, 3510, 3951, 4392, 4833, 5274, 5715, 6156, 6597, 7038, 7479, 7920, 8361, 8802, 9243, 424
865, 1306, 1747, 2188, 2629, 3070, 3511, 3952, 4393, 4834, 5275, 5716, 6157, 6598, 7039, 7480
7921, 8362, 8803, 9244, 425, 866, 1307, 1748, 2189, 2630, 3071, 3512, 3953, 4394, 4835, 5276
5717, 6158, 6599, 7040, 7481, 7922, 8363, 8804, 9245, 426, 867, 1308, 1749, 2190, 2631, 3072
3513, 3954, 4395, 4836, 5277, 5718, 6159, 6600, 7041, 7482, 7923, 8364, 8805, 9246, 427, 868
1309, 1750, 2191, 2632, 3073, 3514, 3955, 4396, 4837, 5278, 5719, 6160, 6601, 7042, 7483, 7924
8365, 8806, 9247, 428, 869, 1310, 1751, 2192, 2633, 3074, 3515, 3956, 4397, 4838, 5279, 5720
6161, 6602, 7043, 7484, 7925, 8366, 8807, 9248, 429, 870, 1311, 1752, 2193, 2634, 3075, 3516
3957, 4398, 4839, 5280, 5721, 6162, 6603, 7044, 7485, 7926, 8367, 8808, 9249, 430, 871, 1312
1753, 2194, 2635, 3076, 3517, 3958, 4399, 4840, 5281, 5722, 6163, 6604, 7045, 7486, 7927, 8368
8809, 9250, 431, 872, 1313, 1754, 2195, 2636, 3077, 3518, 3959, 4400, 4841, 5282, 5723, 6164
6605, 7046, 7487, 7928, 8369, 8810, 9251, 432, 873, 1314, 1755, 2196, 2637, 3078, 3519, 3960
4401, 4842, 5283, 5724, 6165, 6606, 7047, 7488, 7929, 8370, 8811, 9252, 433, 874, 1315, 1756
2197, 2638, 3079, 3520, 3961, 4402, 4843, 5284, 5725, 6166, 6607, 7048, 7489, 7930, 8371, 8812
9253, 434, 875, 1316, 1757, 2198, 2639, 3080, 3521, 3962, 4403, 4844, 5285, 5726, 6167, 6608
7049, 7490, 7931, 8372, 8813, 9254, 435, 876, 1317, 1758, 2199, 2640, 3081, 3522, 3963, 4404
4845, 5286, 5727, 6168, 6609, 7050, 7491, 7932, 8373, 8814, 9255, 436, 877, 1318, 1759, 2200
** ... 8 like lines cut
**
** ----------------------------------------------------------------
**                          MATERIALS
** ----------------------------------------------------------------
*Material, name=Aragonite
*Elastic, type=ENGINEERING CONSTANTS
140432.0, 70297.0, 63413.0, 0.5048, 0.0775, 0.4664, 46600.0, 31100.0
 42100.0
**
** ----------------------------------------------------------------
**                    SECTION ASSIGNMENTS
** ----------------------------------------------------------------
*Solid Section, elset=Needle1, material=Aragonite, orientation=Orient1
,
*Orientation, name=Orient1
0.999294, 0.000000, -0.037573, 0.000000, -1.000000, 0.000000
1, 0
*Solid Section, elset=Needle3, material=Aragonite, orientation=Orient3
,
*Orientation, name=Orient3
0.087194, -0.993531, 0.072757, -0.996171, -0.087426, 0.000000
1, 0
*Solid Section, elset=Needle4, material=Aragonite, orientation=Orient4
,
*Orientation, name=Orient4
0.608026, 0.793063, -0.036814, 0.793601, -0.608439, 0.000000
1, 0
*Solid Section, elset=Needle6, material=Aragonite, orientation=Orient6
,
*Orientation, name=Orient6
0.839977, -0.534325, 0.094528, -0.536728, -0.843755, 0.000000
1, 0
*Solid Section, elset=Needle7, material=Aragonite, orientation=Orient7
,
*Orientation, name=Orient7
-0.259047, 0.963642, 0.065495, 0.965715, 0.259604, -0.000000
1, 0
*Solid Section, elset=Needle8, material=Aragonite, orientation=Orient8
,
*Orientation, name=Orient8
-0.459425, -0.884594, -0.080134, -0.887448, 0.460907, 0.000000
1, 0
*Solid Section, elset=Needle9, material=Aragonite, orientation=Orient9
,
*Orientation, name=Orient9
0.938233, 0.342641, 0.048130, 0.343039, -0.939321, 0.000000
1, 0
*Solid Section, elset=Needle12, material=Aragonite, orientation=Orient12
,
*Orientation, name=Orient12
0.299146, 0.953725, 0.030351, 0.954164, -0.299284, 0.000000
1, 0
*Solid Section, elset=Needle14, material=Aragonite, orientation=Orient14
,
*Orientation, name=Orient14
0.973040, -0.213920, -0.086205, -0.214719, -0.976676, 0.000000
1, 0
*Solid Section, elset=Needle15, material=Aragonite, orientation=Orient15
,
*Orientation, name=Orient15
-0.573491, 0.815732, -0.075431, 0.818062, 0.575129, -0.000000
1, 0
*Solid Section, elset=Needle16, material=Aragonite, orientation=Orient16
,
*Orientation, name=Orient16
-0.127988, -0.987673, -0.090116, -0.991708, 0.128511, 0.000000
1, 0
*Solid Section, elset=Needle17, material=Aragonite, orientation=Orient17
,
*Orientation, name=Orient17
0.762626, 0.642742, 0.072700, 0.644447, -0.764649, 0.000000
1, 0
*Solid Section, elset=Needle19, material=Aragonite, orientation=Orient19
,
*Orientation, name=Orient19
0.708060, -0.704614, 0.046583, -0.705380, -0.708829, 0.000000
1, 0
*Solid Section, elset=Needle20, material=Aragonite, orientation=Orient20
,
*Orientation, name=Orient20
-0.046165, 0.998351, -0.034118, 0.998933, 0.046191, -0.000000
1, 0
*Solid Section, elset=Needle21, material=Aragonite, orientation=Orient21
,
*Orientation, name=Orient21
0.998813, 0.000000, -0.048719, 0.000000, -1.000000, 0.000000
1, 0
*Solid Section, elset=Needle22, material=Aragonite, orientation=Orient22
,
*Orientation, name=Orient22
-0.734446, 0.672812, 0.088958, 0.675490, 0.737369, -0.000000
1, 0
*Solid Section, elset=Needle23, material=Aragonite, orientation=Orient23
,
*Orientation, name=Orient23
0.087406, -0.995951, 0.021017, -0.996171, -0.087426, 0.000000
1, 0
*Solid Section, elset=Needle24, material=Aragonite, orientation=Orient24
,
*Orientation, name=Orient24
0.608127, 0.793194, 0.032007, 0.793601, -0.608439, 0.000000
1, 0
*Solid Section, elset=Needle26, material=Aragonite, orientation=Orient26
,
*Orientation, name=Orient26
0.841497, -0.535291, -0.073120, -0.536728, -0.843755, 0.000000
1, 0
*Solid Section, elset=Needle27, material=Aragonite, orientation=Orient27
,
*Orientation, name=Orient27
-0.259373, 0.964855, 0.042185, 0.965715, 0.259604, -0.000000
1, 0
*Solid Section, elset=Needle29, material=Aragonite, orientation=Orient29
,
*Orientation, name=Orient29
0.938898, 0.342884, 0.030015, 0.343039, -0.939321, 0.000000
1, 0
*Solid Section, elset=Needle30, material=Aragonite, orientation=Orient30
,
*Orientation, name=Orient30
-0.923793, 0.381328, -0.034562, 0.381556, 0.924346, -0.000000
1, 0
*Solid Section, elset=Needle31, material=Aragonite, orientation=Orient31
,
*Orientation, name=Orient31
0.423726, -0.905478, -0.023772, -0.905734, -0.423846, 0.000000
1, 0
*Solid Section, elset=Needle32, material=Aragonite, orientation=Orient32
,
*Orientation, name=Orient32
0.299272, 0.954127, 0.008786, 0.954164, -0.299284, 0.000000
1, 0
*Solid Section, elset=Needle34, material=Aragonite, orientation=Orient34
,
*Orientation, name=Orient34
0.976672, -0.214719, 0.002856, -0.214719, -0.976676, 0.000000
1, 0
*Solid Section, elset=Needle35, material=Aragonite, orientation=Orient35
,
*Orientation, name=Orient35
-0.573869, 0.816270, -0.066167, 0.818062, 0.575129, -0.000000
1, 0
*Solid Section, elset=Needle36, material=Aragonite, orientation=Orient36
,
*Orientation, name=Orient36
-0.128310, -0.990160, -0.055862, -0.991708, 0.128511, 0.000000
1, 0
*Solid Section, elset=Needle37, material=Aragonite, orientation=Orient37
,
*Orientation, name=Orient37
0.764635, 0.644435, -0.006079, 0.644447, -0.764649, 0.000000
1, 0
*Solid Section, elset=Needle38, material=Aragonite, orientation=Orient38
,
*Orientation, name=Orient38
-0.996438, 0.041206, -0.073570, 0.041318, 0.999146, -0.000000
1, 0
*Solid Section, elset=Needle39, material=Aragonite, orientation=Orient39
,
*Orientation, name=Orient39
0.708623, -0.705175, -0.024113, -0.705380, -0.708829, 0.000000
1, 0
*Solid Section, elset=Needle40, material=Aragonite, orientation=Orient40
,
*Orientation, name=Orient40
-0.046092, 0.996788, 0.065489, 0.998933, 0.046191, -0.000000
1, 0
*Solid Section, elset=Needle41, material=Aragonite, orientation=Orient41
,
*Orientation, name=Orient41
-0.640604, -0.767657, 0.018153, -0.767784, 0.640709, 0.000000
1, 0
*Solid Section, elset=Needle42, material=Aragonite, orientation=Orient42
,
*Orientation, name=Orient42
0.989562, 0.133144, 0.055130, 0.133347, -0.991069, 0.000000
1, 0
*Solid Section, elset=Needle43, material=Aragonite, orientation=Orient43
,
*Orientation, name=Orient43
-0.819012, 0.569847, 0.067040, 0.571132, 0.820858, -0.000000
1, 0
*Solid Section, elset=Needle44, material=Aragonite, orientation=Orient44
,
*Orientation, name=Orient44
0.996725, 0.000000, -0.080870, 0.000000, -1.000000, 0.000000
1, 0
*Solid Section, elset=Needle45, material=Aragonite, orientation=Orient45
,
*Orientation, name=Orient45
-0.735775, 0.674030, 0.065716, 0.675490, 0.737369, -0.000000
1, 0
*Solid Section, elset=Needle46, material=Aragonite, orientation=Orient46
,
*Orientation, name=Orient46
0.087402, -0.995901, -0.023273, -0.996171, -0.087426, 0.000000
1, 0
*Solid Section, elset=Needle47, material=Aragonite, orientation=Orient47
,
*Orientation, name=Orient47
0.605680, 0.790002, -0.095125, 0.793601, -0.608439, 0.000000
1, 0
*Solid Section, elset=Needle48, material=Aragonite, orientation=Orient48
,
*Orientation, name=Orient48
-0.984484, -0.174141, -0.021596, -0.174182, 0.984713, 0.000000
1, 0
**
** ----------------------------------------------------------------
**                            STEP
** ----------------------------------------------------------------
*Step, name=Step-1
*Static
1., 1., 1e-05, 1.
**
*Boundary
1, 1, 3
**
*End Step
